** Branch test - boundary condition scenarios
** FAST Calibration - Example
**
*include,INPUT=branch_model_gk4.geom
**
*MATERIAL, NAME=top
*ELASTIC, TYPE = ISOTROPIC
20e9, 0.20, 0.0
*DENSITY
2500
**
*MATERIAL, NAME=sediments_1
*ELASTIC, TYPE = ISOTROPIC
35e9, 0.22, 0.0
*DENSITY
2700
**
*MATERIAL, NAME=sediments_2
*ELASTIC, TYPE = ISOTROPIC
7e9, 0.22, 0.0
*DENSITY
2700
**
*MATERIAL, NAME=sediments_3
*ELASTIC, TYPE = ISOTROPIC
29e9, 0.22, 0.0
*DENSITY
2700
**
*MATERIAL, NAME=basement
*ELASTIC, TYPE = ISOTROPIC
57e9, 0.24, 0.0
*DENSITY
2900
**
*SOLIDSECTION,ELSET=top, MATERIAL=top
*SOLIDSECTION,ELSET=sediments_1, MATERIAL=sediments_1
*SOLIDSECTION,ELSET=sediments_2, MATERIAL=sediments_2
*SOLIDSECTION,ELSET=sediments_3, MATERIAL=sediments_3
*SOLIDSECTION,ELSET=basement, MATERIAL=basement
**
*INITIAL CONDITIONS, TYPE=STRESS, FILE=branch_initial.odb, STEP=1, INC=1
**
*STEP
*STATIC
*DLOAD
,GRAV,9.797,0,0,-1
*BOUNDARY
west,1,,-10
south,2,,10
east,1,,0
north,2,,0
bottom,3,,0
*OUTPUT, FIELD
*ELEMENT OUTPUT
S
*NODE OUTPUT
COORD, U
*END STEP
**
*STEP
*STATIC
*BOUNDARY
west,1,,-10
south,2,,5
east,1,,0
north,2,,0
bottom,3,,0
*END STEP
**
*STEP
*STATIC
*BOUNDARY
west,1,,-5
south,2,,10
east,1,,0
north,2,,0
bottom,3,,0
*END STEP
**